Version 4
SHEET 1 880 680
WIRE 224 64 80 64
WIRE 416 64 224 64
WIRE 80 128 80 64
WIRE 224 128 224 64
WIRE 416 128 416 64
WIRE 224 256 224 208
WIRE 224 256 128 256
WIRE 416 256 416 208
WIRE 416 256 224 256
WIRE 80 272 80 208
WIRE 128 272 128 256
WIRE 128 272 80 272
WIRE 128 304 128 272
FLAG 128 304 0
SYMBOL res 208 112 R0
SYMATTR InstName R1
SYMATTR Value 1000000
SYMBOL res 400 112 R0
SYMATTR InstName R2
SYMATTR Value {X}
SYMBOL current 80 208 R180
WINDOW 0 24 80 Left 2
WINDOW 3 24 0 Left 2
WINDOW 123 0 0 Left 2
WINDOW 39 0 0 Left 2
SYMATTR InstName I1
SYMATTR Value 100µ
TEXT 24 -56 Left 2 !.step param X 1000 10000 500
TEXT 224 432 Left 2 !.op
