Version 4
SHEET 1 880 680
WIRE 208 -144 160 -144
WIRE 384 -144 288 -144
WIRE -160 -96 -336 -96
WIRE 160 -96 160 -144
WIRE 160 -96 -160 -96
WIRE -336 -32 -336 -96
WIRE -160 -32 -160 -96
WIRE 160 -32 160 -96
WIRE 384 -16 384 -144
WIRE 448 -16 384 -16
WIRE -336 128 -336 48
WIRE -160 128 -160 48
WIRE -160 128 -336 128
WIRE 32 128 -160 128
WIRE 160 128 32 128
WIRE 32 240 32 128
FLAG 32 240 0
FLAG 448 -16 TIA_out
IOPIN 448 -16 Out
SYMBOL res -176 -48 R0
SYMATTR InstName R1
SYMATTR Value 10e9
SYMATTR SpiceLine tol=1 pwr=0.1
SYMBOL current -336 -32 R0
WINDOW 3 24 28 Left 2
WINDOW 39 24 84 Left 2
SYMATTR Value SINE(0 100e-6 1000)
SYMATTR Value2 AC 100u 0
SYMATTR InstName I1
SYMBOL res 304 -160 R90
WINDOW 0 0 56 VBottom 2
WINDOW 3 32 56 VTop 2
SYMATTR InstName R2
SYMATTR Value 1000
TEXT -370 264 Left 2 !.tran 0 3m 0
